/*--------------------------------*- C++ -*----------------------------------*\
| =========                 |                                                 |
| \\      /  F ield         | OpenFOAM: The Open Source CFD Toolbox           |
|  \\    /   O peration     | Version:  2.3.0                                 |
|   \\  /    A nd           | Web:      www.OpenFOAM.org                      |
|    \\/     M anipulation  |                                                 |
\*---------------------------------------------------------------------------*/
FoamFile
{
    version     2.0;
    format      binary;
    class       polyBoundaryMesh;
    location    "constant/polyMesh";
    object      boundary;
}
// * * * * * * * * * * * * * * * * * * * * * * * * * * * * * * * * * * * * * //

13
(
    Grainwalls
    {
        type            patch;
        nFaces          4579;
        startFace       26497;
    }
    Left
    {
        type            patch;
        nFaces          76;
        startFace       31076;
    }
    Right
    {
        type            patch;
        nFaces          136;
        startFace       31152;
    }
    Bottom
    {
        type            patch;
        nFaces          474;
        startFace       31288;
    }
    Top
    {
        type            patch;
        nFaces          0;
        startFace       31762;
    }
    Back
    {
        type            patch;
        nFaces          129;
        startFace       31762;
    }
    Front
    {
        type            patch;
        nFaces          208;
        startFace       31891;
    }
    procBoundary16to13
    {
        type            processor;
        inGroups        1(processor);
        nFaces          228;
        startFace       32099;
        matchTolerance  0.0001;
        transform       unknown;
        myProcNo        16;
        neighbProcNo    13;
    }
    procBoundary16to29
    {
        type            processor;
        inGroups        1(processor);
        nFaces          197;
        startFace       32327;
        matchTolerance  0.0001;
        transform       unknown;
        myProcNo        16;
        neighbProcNo    29;
    }
    procBoundary16to18
    {
        type            processor;
        inGroups        1(processor);
        nFaces          117;
        startFace       32524;
        matchTolerance  0.0001;
        transform       unknown;
        myProcNo        16;
        neighbProcNo    18;
    }
    procBoundary16to20
    {
        type            processor;
        inGroups        1(processor);
        nFaces          134;
        startFace       32641;
        matchTolerance  0.0001;
        transform       unknown;
        myProcNo        16;
        neighbProcNo    20;
    }
    procBoundary16to17
    {
        type            processor;
        inGroups        1(processor);
        nFaces          186;
        startFace       32775;
        matchTolerance  0.0001;
        transform       unknown;
        myProcNo        16;
        neighbProcNo    17;
    }
    procBoundary16to31
    {
        type            processor;
        inGroups        1(processor);
        nFaces          2;
        startFace       32961;
        matchTolerance  0.0001;
        transform       unknown;
        myProcNo        16;
        neighbProcNo    31;
    }
)

// ************************************************************************* //
