/*--------------------------------*- C++ -*----------------------------------*\
| =========                 |                                                 |
| \\      /  F ield         | OpenFOAM: The Open Source CFD Toolbox           |
|  \\    /   O peration     | Version:  2.3.0                                 |
|   \\  /    A nd           | Web:      www.OpenFOAM.org                      |
|    \\/     M anipulation  |                                                 |
\*---------------------------------------------------------------------------*/
FoamFile
{
    version     2.0;
    format      binary;
    class       polyBoundaryMesh;
    location    "constant/polyMesh";
    object      boundary;
}
// * * * * * * * * * * * * * * * * * * * * * * * * * * * * * * * * * * * * * //

14
(
    Grainwalls
    {
        type            patch;
        nFaces          4377;
        startFace       26454;
    }
    Left
    {
        type            patch;
        nFaces          414;
        startFace       30831;
    }
    Right
    {
        type            patch;
        nFaces          0;
        startFace       31245;
    }
    Bottom
    {
        type            patch;
        nFaces          0;
        startFace       31245;
    }
    Top
    {
        type            patch;
        nFaces          0;
        startFace       31245;
    }
    Back
    {
        type            patch;
        nFaces          0;
        startFace       31245;
    }
    Front
    {
        type            patch;
        nFaces          0;
        startFace       31245;
    }
    procBoundary9to0
    {
        type            processor;
        inGroups        1(processor);
        nFaces          24;
        startFace       31245;
        matchTolerance  0.0001;
        transform       unknown;
        myProcNo        9;
        neighbProcNo    0;
    }
    procBoundary9to8
    {
        type            processor;
        inGroups        1(processor);
        nFaces          796;
        startFace       31269;
        matchTolerance  0.0001;
        transform       unknown;
        myProcNo        9;
        neighbProcNo    8;
    }
    procBoundary9to10
    {
        type            processor;
        inGroups        1(processor);
        nFaces          183;
        startFace       32065;
        matchTolerance  0.0001;
        transform       unknown;
        myProcNo        9;
        neighbProcNo    10;
    }
    procBoundary9to1
    {
        type            processor;
        inGroups        1(processor);
        nFaces          145;
        startFace       32248;
        matchTolerance  0.0001;
        transform       unknown;
        myProcNo        9;
        neighbProcNo    1;
    }
    procBoundary9to12
    {
        type            processor;
        inGroups        1(processor);
        nFaces          9;
        startFace       32393;
        matchTolerance  0.0001;
        transform       unknown;
        myProcNo        9;
        neighbProcNo    12;
    }
    procBoundary9to3
    {
        type            processor;
        inGroups        1(processor);
        nFaces          6;
        startFace       32402;
        matchTolerance  0.0001;
        transform       unknown;
        myProcNo        9;
        neighbProcNo    3;
    }
    procBoundary9to2
    {
        type            processor;
        inGroups        1(processor);
        nFaces          4;
        startFace       32408;
        matchTolerance  0.0001;
        transform       unknown;
        myProcNo        9;
        neighbProcNo    2;
    }
)

// ************************************************************************* //
