/*--------------------------------*- C++ -*----------------------------------*\
| =========                 |                                                 |
| \\      /  F ield         | OpenFOAM: The Open Source CFD Toolbox           |
|  \\    /   O peration     | Version:  2.3.0                                 |
|   \\  /    A nd           | Web:      www.OpenFOAM.org                      |
|    \\/     M anipulation  |                                                 |
\*---------------------------------------------------------------------------*/
FoamFile
{
    version     2.0;
    format      binary;
    class       polyBoundaryMesh;
    location    "constant/polyMesh";
    object      boundary;
}
// * * * * * * * * * * * * * * * * * * * * * * * * * * * * * * * * * * * * * //

13
(
    Grainwalls
    {
        type            patch;
        nFaces          3815;
        startFace       29177;
    }
    Left
    {
        type            patch;
        nFaces          0;
        startFace       32992;
    }
    Right
    {
        type            patch;
        nFaces          0;
        startFace       32992;
    }
    Bottom
    {
        type            patch;
        nFaces          0;
        startFace       32992;
    }
    Top
    {
        type            patch;
        nFaces          227;
        startFace       32992;
    }
    Back
    {
        type            patch;
        nFaces          0;
        startFace       33219;
    }
    Front
    {
        type            patch;
        nFaces          0;
        startFace       33219;
    }
    procBoundary6to1
    {
        type            processor;
        inGroups        1(processor);
        nFaces          252;
        startFace       33219;
        matchTolerance  0.0001;
        transform       unknown;
        myProcNo        6;
        neighbProcNo    1;
    }
    procBoundary6to7
    {
        type            processor;
        inGroups        1(processor);
        nFaces          556;
        startFace       33471;
        matchTolerance  0.0001;
        transform       unknown;
        myProcNo        6;
        neighbProcNo    7;
    }
    procBoundary6to0
    {
        type            processor;
        inGroups        1(processor);
        nFaces          7;
        startFace       34027;
        matchTolerance  0.0001;
        transform       unknown;
        myProcNo        6;
        neighbProcNo    0;
    }
    procBoundary6to2
    {
        type            processor;
        inGroups        1(processor);
        nFaces          286;
        startFace       34034;
        matchTolerance  0.0001;
        transform       unknown;
        myProcNo        6;
        neighbProcNo    2;
    }
    procBoundary6to3
    {
        type            processor;
        inGroups        1(processor);
        nFaces          32;
        startFace       34320;
        matchTolerance  0.0001;
        transform       unknown;
        myProcNo        6;
        neighbProcNo    3;
    }
    procBoundary6to4
    {
        type            processor;
        inGroups        1(processor);
        nFaces          257;
        startFace       34352;
        matchTolerance  0.0001;
        transform       unknown;
        myProcNo        6;
        neighbProcNo    4;
    }
)

// ************************************************************************* //
