/*--------------------------------*- C++ -*----------------------------------*\
| =========                 |                                                 |
| \\      /  F ield         | OpenFOAM: The Open Source CFD Toolbox           |
|  \\    /   O peration     | Version:  2.3.0                                 |
|   \\  /    A nd           | Web:      www.OpenFOAM.org                      |
|    \\/     M anipulation  |                                                 |
\*---------------------------------------------------------------------------*/
FoamFile
{
    version     2.0;
    format      binary;
    class       polyBoundaryMesh;
    location    "constant/polyMesh";
    object      boundary;
}
// * * * * * * * * * * * * * * * * * * * * * * * * * * * * * * * * * * * * * //

12
(
    Grainwalls
    {
        type            patch;
        nFaces          3018;
        startFace       28942;
    }
    Left
    {
        type            patch;
        nFaces          761;
        startFace       31960;
    }
    Right
    {
        type            patch;
        nFaces          0;
        startFace       32721;
    }
    Bottom
    {
        type            patch;
        nFaces          0;
        startFace       32721;
    }
    Top
    {
        type            patch;
        nFaces          379;
        startFace       32721;
    }
    Back
    {
        type            patch;
        nFaces          0;
        startFace       33100;
    }
    Front
    {
        type            patch;
        nFaces          0;
        startFace       33100;
    }
    procBoundary0to5
    {
        type            processor;
        inGroups        1(processor);
        nFaces          57;
        startFace       33100;
        matchTolerance  0.0001;
        transform       unknown;
        myProcNo        0;
        neighbProcNo    5;
    }
    procBoundary0to9
    {
        type            processor;
        inGroups        1(processor);
        nFaces          24;
        startFace       33157;
        matchTolerance  0.0001;
        transform       unknown;
        myProcNo        0;
        neighbProcNo    9;
    }
    procBoundary0to1
    {
        type            processor;
        inGroups        1(processor);
        nFaces          509;
        startFace       33181;
        matchTolerance  0.0001;
        transform       unknown;
        myProcNo        0;
        neighbProcNo    1;
    }
    procBoundary0to6
    {
        type            processor;
        inGroups        1(processor);
        nFaces          7;
        startFace       33690;
        matchTolerance  0.0001;
        transform       unknown;
        myProcNo        0;
        neighbProcNo    6;
    }
    procBoundary0to7
    {
        type            processor;
        inGroups        1(processor);
        nFaces          67;
        startFace       33697;
        matchTolerance  0.0001;
        transform       unknown;
        myProcNo        0;
        neighbProcNo    7;
    }
)

// ************************************************************************* //
